/*--------------------------------*- C++ -*----------------------------------*\
| =========                 |                                                 |
| \\      /  F ield         | OpenFOAM: The Open Source CFD Toolbox           |
|  \\    /   O peration     | Version:  5.0                                   |
|   \\  /    A nd           | Web:      www.OpenFOAM.org                      |
|    \\/     M anipulation  |                                                 |
\*---------------------------------------------------------------------------*/
FoamFile
{
    version     2.0;
    format      ascii;
    class       volTensorField;
    location    "0";
    object      K;
}
// * * * * * * * * * * * * * * * * * * * * * * * * * * * * * * * * * * * * * //

dimensions     [0  2  0 0 0 0 0];

internalField   uniform (3e-13 0 0 0 3e-13 0 0 0 3e-13);

boundaryField
{
    
    walls
    {
        type            zeroGradient;
    }

    topAndBottume
    {
        type            empty;
    }

}


// ************************************************************************* //
