/*--------------------------------*- C++ -*----------------------------------*\
| =========                 |                                                 |
| \\      /  F ield         | foam-extend: Open Source CFD                    |
|  \\    /   O peration     | Version:     4.0                                |
|   \\  /    A nd           | Web:         http://www.foam-extend.org         |
|    \\/     M anipulation  |                                                 |
\*---------------------------------------------------------------------------*/
FoamFile
{
    version     2.0;
    format      ascii;
    class       dictionary;
    location    "system";
    object      fvSchemes;
}
// * * * * * * * * * * * * * * * * * * * * * * * * * * * * * * * * * * * * * //

ddtSchemes
{
    default Steady;
}

gradSchemes
{
    default none;
    grad(p) Gauss linear;
}

divSchemes
{
    default none;
}

laplacianSchemes
{
    default none;
    laplacian(-Mf,p) Gauss linear corrected;
}

interpolationSchemes
{
    default linear;
    K       linear;
    interpolate(grad(p))  linear;
}

snGradSchemes
{
    default corrected;
}

//fluxRequired
//{
   // default no;
   // p;
//}

// ************************************************************************* //
