/*--------------------------------*- C++ -*----------------------------------*\
| =========                 |                                                 |
| \\      /  F ield         | foam-extend: Open Source CFD                    |
|  \\    /   O peration     | Version:     4.0                                |
|   \\  /    A nd           | Web:         http://www.foam-extend.org         |
|    \\/     M anipulation  |                                                 |
\*---------------------------------------------------------------------------*/
FoamFile
{
    version     2.0;
    format      ascii;
    class       dictionary;
    location    "system";
    object      fvSchemes;
}
// * * * * * * * * * * * * * * * * * * * * * * * * * * * * * * * * * * * * * //

ddtSchemes
{
    default         Euler;
}

gradSchemes
{
    default         Gauss linear;
}

divSchemes
{
    default         none;
}

laplacianSchemes
{
    default         	Gauss linear corrected;;
}

interpolationSchemes
{
    default		linear;
    K			harmonic;
    kra	                upwind phia;
    krb         	upwind phib;
    flux(U)             linear;
    Up                  linear;
    //grad(p)             linear;
}

snGradSchemes
{
    default         corrected;
}

//fluxRequired
//{
    //default         no;
    //p           ;
//}


// ************************************************************************* //
