/*--------------------------------*- C++ -*----------------------------------*\
| =========                 |                                                 |
| \\      /  F ield         | foam-extend: Open Source CFD                    |
|  \\    /   O peration     | Version:     4.0                                |
|   \\  /    A nd           | Web:         http://www.foam-extend.org         |
|    \\/     M anipulation  |                                                 |
\*---------------------------------------------------------------------------*/
FoamFile
{
  version     2.0;
  format      ascii;
  class       dictionary;
  location    "constant";
  object      transportProperties;
}
// * * * * * * * * * * * * * * * * * * * * * * * * * * * * * * * * * * * * * //

eps		eps [0  0  0 0 0 0 0]	      0.5;
	
Sbmin		Sbmin [0  0  0 0 0 0 0]	      0.1;
Sbmax		Sbmax [0  0  0 0 0 0 0]    0.9999;

phase.a
{
  rho	rho [1 -3 0 0 0 0 0] 	1e0;
  mu	mu [1 -1 -1 0 0 0 0]	1.76e-5;
}
	
phase.b
{
  rho	rho [1 -3 0 0 0 0 0] 	1e3;
  mu	mu [1 -1 -1 0 0 0 0]	1e-3;
}

relativePermeabilityModel   BrooksAndCorey;


BrooksAndCoreyCoeffs
{
    // kr 
    n 3; 
    kramax kramax [0 0 0 0 0 0 0] 1;
    krbmax krbmax [0 0 0 0 0 0 0] 1;
  	
}

// ************************************************************************* //
