/*--------------------------------*- C++ -*----------------------------------*\
| =========                 |                                                 |
| \\      /  F ield         | foam-extend: Open Source CFD                    |
|  \\    /   O peration     | Version:     4.0                                |
|   \\  /    A nd           | Web:         http://www.foam-extend.org         |
|    \\/     M anipulation  |                                                 |
\*---------------------------------------------------------------------------*/
FoamFile
{
  version     2.0;
  format      ascii;
  class       dictionary;
  location    "constant";
  object      wellboreProperties;
}
// * * * * * * * * * * * * * * * * * * * * * * * * * * * * * * * * * * * * * //

//////production1

well.Pro1a
   {
     
	   activeWell	                    activeWell [ 0 0 0 0 0 0 0 ]                    1; 

           activeTimeCondition              activeTimeCondition [ 0 0 0 0 0 0 0 ]           1;
           timeCondition                    timeCondition [ 0 0 1 0 0 0 0 ]	           10;
  
           activeQCondition                 activeQCondition [ 0 0 0 0 0 0 0 ]              0;
           qCondition                       qCondition [ 0 3 -1 0 0 0 0 ]	         1e-3;        
           
           activeGorCondition               activeGorCondition [ 0 0 0 0 0 0 0 ]            0;
           gorCondition                     gorCondition [ 0 0 0 0 0 0 0 ]	          100;
            
           lessTimeConditionPlan                                                       pConst;
           moreTimeConditionPlan                                                       pConst;
           
           lessQConditionPlan                                                          pConst;
           moreQConditionPlan                                                          qConst;
  
           lessGorConditionPlan                                                        pConst;
           moreGorConditionPlan                                                        pConst;
           
           qConstant	                    qConstant [ 0 3 -1 0 0 0 0 ]                0.001;

           volume                           volume [ 0 3 0 0 0 0 0 ]	                   10;
           radius                           radius [ 0 1 0 0 0 0 0 ]	              0.03048;
	   deltax                           deltax [ 0 1 0 0 0 0 0 ]	                    1;
	   deltay                           deltay [ 0 1 0 0 0 0 0 ]	                    1;
           height                           height [ 0 1 0 0 0 0 0 ]	                    2;
           pb                               pb [ 1 -1 -2 0 0 0 0 ]	              5000000;              //bottumhole Pressure// 
           zCoordinate                      zCoordinate [0 1 0 0 0 0 0 ]       (39.5 0.5 0.5);
	
     
   } 
/////////////// 


//////injection1

well.Inj1a
   {  
          activeWell	                   activeWell [ 0 0 0 0 0 0 0 ]                    0; 

           activeTimeCondition             activeTimeCondition [ 0 0 0 0 0 0 0 ]            1;
           timeCondition                   timeCondition [ 0 0 1 0 0 0 0 ]	           50;
  
           activeQCondition                activeQCondition [ 0 0 0 0 0 0 0 ]               0;
           qCondition                      qCondition [ 0 3 -1 0 0 0 0 ]	         1e-3;        
           
           activeGorCondition              activeGorCondition [ 0 0 0 0 0 0 0 ]             0;
           gorCondition                    gorCondition [ 0 0 0 0 0 0 0 ]	           64;
             
           lessTimeConditionPlan                                                       qConst;
           moreTimeConditionPlan                                                       qConst;
            
           lessQConditionPlan                                                          qConst;
           moreQConditionPlan                                                          pConst;

           lessGorConditionPlan                                                        pConst;
           moreGorConditionPlan                                                        pConst;
               
           qConstant	                   qConstant [ 0 3 -1 0 0 0 0 ]                 0.001;

           volume                          volume [ 0 3 0 0 0 0 0 ]	                   10;
           radius                          radius [ 0 1 0 0 0 0 0 ]	              0.03048;
	   deltax                          deltax [ 0 1 0 0 0 0 0 ]	                    1;
	   deltay                          deltay [ 0 1 0 0 0 0 0 ]	                    1;
           height                          height [ 0 1 0 0 0 0 0 ]	                    2;
           pb                              pb [ 1 -1 -2 0 0 0 0 ]	              5000000;            //bottumhole Pressure// 
           zCoordinate                     zCoordinate [0 1 0 0 0 0 0 ]        (0.5 0.5 30.5);

   } 
///////////////  


// ************************************************************************* //


//////production1b

well.Pro1b
   {
     
	   activeWell	                    activeWell [ 0 0 0 0 0 0 0 ]                    0; 

           activeTimeCondition              activeTimeCondition [ 0 0 0 0 0 0 0 ]           1;
           timeCondition                    timeCondition [ 0 0 1 0 0 0 0 ]	           10;
  
           activeQCondition                 activeQCondition [ 0 0 0 0 0 0 0 ]              0;
           qCondition                       qCondition [ 0 3 -1 0 0 0 0 ]	         1e-3;        
           
           activeGorCondition               activeGorCondition [ 0 0 0 0 0 0 0 ]            0;
           gorCondition                     gorCondition [ 0 0 0 0 0 0 0 ]	          100;
            
           lessTimeConditionPlan                                                       pConst;
           moreTimeConditionPlan                                                       pConst;
           
           lessQConditionPlan                                                          pConst;
           moreQConditionPlan                                                          qConst;
  
           lessGorConditionPlan                                                        pConst;
           moreGorConditionPlan                                                        pConst;
           
           qConstant	                    qConstant [ 0 3 -1 0 0 0 0 ]                0.001;

           volume                           volume [ 0 3 0 0 0 0 0 ]	                   10;
           radius                           radius [ 0 1 0 0 0 0 0 ]	              0.03048;
	   deltax                           deltax [ 0 1 0 0 0 0 0 ]	                    1;
	   deltay                           deltay [ 0 1 0 0 0 0 0 ]	                    1;
           height                           height [ 0 1 0 0 0 0 0 ]	                    2;
           pb                               pb [ 1 -1 -2 0 0 0 0 ]	              5000000;              //bottumhole Pressure// 
           zCoordinate                      zCoordinate [0 1 0 0 0 0 0 ]       (39.5 0.5 0.5);
	
     
   } 
/////////////// 


//////injection1b

well.Inj1b
   {  
          activeWell	                   activeWell [ 0 0 0 0 0 0 0 ]                     1; 

           activeTimeCondition             activeTimeCondition [ 0 0 0 0 0 0 0 ]            1;
           timeCondition                   timeCondition [ 0 0 1 0 0 0 0 ]	           50;
  
           activeQCondition                activeQCondition [ 0 0 0 0 0 0 0 ]               0;
           qCondition                      qCondition [ 0 3 -1 0 0 0 0 ]	         1e-3;        
           
           activeGorCondition              activeGorCondition [ 0 0 0 0 0 0 0 ]             0;
           gorCondition                    gorCondition [ 0 0 0 0 0 0 0 ]	           64;
             
           lessTimeConditionPlan                                                       qConst;
           moreTimeConditionPlan                                                       qConst;
            
           lessQConditionPlan                                                          qConst;
           moreQConditionPlan                                                          pConst;

           lessGorConditionPlan                                                        pConst;
           moreGorConditionPlan                                                        pConst;
               
           qConstant	                   qConstant [ 0 3 -1 0 0 0 0 ]                 0.001;

           volume                          volume [ 0 3 0 0 0 0 0 ]	                   10;
           radius                          radius [ 0 1 0 0 0 0 0 ]	              0.03048;
	   deltax                          deltax [ 0 1 0 0 0 0 0 ]	                    1;
	   deltay                          deltay [ 0 1 0 0 0 0 0 ]	                    1;
           height                          height [ 0 1 0 0 0 0 0 ]	                    2;
           pb                              pb [ 1 -1 -2 0 0 0 0 ]	              5000000;            //bottumhole Pressure// 
           zCoordinate                     zCoordinate [0 1 0 0 0 0 0 ]        (0.5 0.5 30.5);

   } 
///////////////  


// ************************************************************************* //
