/*--------------------------------*- C++ -*----------------------------------*\
| =========                 |                                                 |
| \\      /  F ield         | foam-extend: Open Source CFD                    |
|  \\    /   O peration     | Version:     4.0                                |
|   \\  /    A nd           | Web:         http://www.foam-extend.org         |
|    \\/     M anipulation  |                                                 |
\*---------------------------------------------------------------------------*/
FoamFile
{
    version     2.0;
    format      ascii;
    class       dictionary;
    object      blockMeshDict;
}
// * * * * * * * * * * * * * * * * * * * * * * * * * * * * * * * * * * * * * //

convertToMeters 1;

xMin 0;
xMax 40;
yMin 0;
yMax 1;
zMin 0;
zMax 40;

Nx 40;
Ny 1;
Nz 40;

vertices
(
    ($xMin $yMin $zMin) // 0
    ($xMax $yMin $zMin) // 1
    ($xMax $yMax $zMin) // 2
    ($xMin $yMax $zMin) // 3
    ($xMin $yMin $zMax) // 4
    ($xMax $yMin $zMax) // 5
    ($xMax $yMax $zMax) // 6
    ($xMin $yMax $zMax) // 7
);

blocks
(
    hex (0 1 2 3 4 5 6 7) ($Nx $Ny $Nz) simpleGrading (1 1 1)
);

edges
(
);

boundary
(

 top
 {
   type wall;
   faces ((4 5 6 7));
 }

 bottume
 {
   type wall;
   faces ((0 3 2 1));
 }  
 
 walls
 {
   type wall;
   faces
        (
         (0 4 7 3)
         (1 5 6 2)
        );   
 }

 frontAndBack
 {
   type empty;
   faces
        (
         (3 7 6 2)  
         (0 4 5 1)
        );   
 }





 
);

mergePatchPairs
(
);

// ************************************************************************* //
