/*--------------------------------*- C++ -*----------------------------------*\
| =========                 |                                                 |
| \\      /  F ield         | foam-extend: Open Source CFD                    |
|  \\    /   O peration     | Version:     4.0                                |
|   \\  /    A nd           | Web:         http://www.foam-extend.org         |
|    \\/     M anipulation  |                                                 |
\*---------------------------------------------------------------------------*/
FoamFile
{
    version     2.0;
    format      ascii;
    class       polyBoundaryMesh;
    location    "constant/polyMesh";
    object      boundary;
}
// * * * * * * * * * * * * * * * * * * * * * * * * * * * * * * * * * * * * * //

4
(
    top
    {
        type            wall;
        nFaces          40;
        startFace       3120;
    }
    bottume
    {
        type            wall;
        nFaces          40;
        startFace       3160;
    }
    walls
    {
        type            wall;
        nFaces          80;
        startFace       3200;
    }
    frontAndBack
    {
        type            empty;
        nFaces          3200;
        startFace       3280;
    }
)


// ************************************************************************* //
