/*--------------------------------*- C++ -*----------------------------------*\
  | =========                 |                                                 |
  | \\      /  F ield         | OpenFOAM: The Open Source CFD Toolbox           |
  |  \\    /   O peration     | Version:  5.0                                   |
  |   \\  /    A nd           | Web:      www.OpenFOAM.com                      |
  |    \\/     M anipulation  |                                                 |
  \*---------------------------------------------------------------------------*/
FoamFile
{
  version     2.0;
  format      ascii;
  class       dictionary;
  location    "constant";
  object      wellboreProperties;
}
// * * * * * * * * * * * * * * * * * * * * * * * * * * * * * * * * * * * * * //

//////production1

well.Pro1
   {
     
	   activeWell	                                                           1; 

           activeTimeCondition                                                     1;
           timeCondition           timeCondition       [0 0 1 0 0 0 0]	          50;
  
           activeQCondition                                                        1;
           qCondition              qCondition          [0 3 -1 0 0 0 0]	        1e-3;        
           
           activeGorCondition                                                      1;
           gorCondition            gorCondition        [0 0 0 0 0 0 0]	         100;
            
           lessTimeConditionPlan                                              qConst;
           moreTimeConditionPlan                                              pConst;
           
           lessQConditionPlan                                                 qConst;
           moreQConditionPlan                                                 pConst;

           lessGorConditionPlan                                               pConst;
           moreGorConditionPlan                                               pConst;
           
           qConstant	         qConstant           [0 3 -1 0 0 0 0]           2e-3;

           volume                   volume           [0 3 0 0 0 0 0]	          12;
           radius                   radius           [0 1 0 0 0 0 0]	           1;
	   deltax                   deltax           [0 1 0 0 0 0 0]	           1;
	   deltay                   deltay           [0 1 0 0 0 0 0]	           1;
           height                   height           [0 1 0 0 0 0 0]	          12;
           pb                       pb               [1 -1 -2 0 0 0 0]	         100;              //bottumhole Pressure// 
	
     
   } 
/////////////// 

//////injection1

well.Inj1
   {
           activeWell	                                                           1; 

           activeTimeCondition                                                     1;
           timeCondition           timeCondition       [0 0 1 0 0 0 0]	          50;
  
           activeQCondition                                                        1;
           qCondition              qCondition          [0 3 -1 0 0 0 0]	        1e-3;        
           
           activeGorCondition                                                      1;
           gorCondition            gorCondition        [0 0 0 0 0 0 0]	          64;
            
           lessTimeConditionPlan                                              qConst;
           moreTimeConditionPlan                                              pConst;
           
           lessQConditionPlan                                                 qConst;
           moreQConditionPlan                                                 pConst;

           lessGorConditionPlan                                               pConst;
           moreGorConditionPlan                                               pConst;
           
           qConstant	         qConstant           [0 3 -1 0 0 0 0]           2e-3;

           volume                   volume           [0 3 0 0 0 0 0]	          12;
           radius                   radius           [0 1 0 0 0 0 0]	           1;
	   deltax                   deltax           [0 1 0 0 0 0 0]	           1;
	   deltay                   deltay           [0 1 0 0 0 0 0]	           1;
           height                   height           [0 1 0 0 0 0 0]	           12;
           pb                       pb               [1 -1 -2 0 0 0 0]	         100;              //bottumhole Pressure// 

   } 
///////////////  


// ************************************************************************* //
